 Abaqus/Standard 3DEXPERIENCE R2018x                  DATE 24-Jan-2019 TIME 11:00:21
 SUMMARY OF JOB INFORMATION:
 STEP  INC ATT SEVERE EQUIL TOTAL  TOTAL      STEP       INC OF       DOF    IF
               DISCON ITERS ITERS  TIME/    TIME/LPF    TIME/LPF    MONITOR RIKS
               ITERS               FREQ
   1     1   1     0     4     4  1.00       1.00       1.000     
   2     1   1     0     5     5  2.00       1.00       1.000     
   3     1   1     0     3     3  3.00       1.00       1.000     
   4     1   1     0     2     2  4.00       1.00       1.000     
   5     1   1     0     2     2  5.00       1.00       1.000     
   6     1   1     0     2     2  6.00       1.00       1.000     
   7     1   1     0     2     2  7.00       1.00       1.000     
   8     1   1     0     2     2  8.00       1.00       1.000     
   9     1   1     0     2     2  9.00       1.00       1.000     
  10     1   1     0     2     2  10.0       1.00       1.000     
  11     1   1     0     2     2  11.0       1.00       1.000     
  12     1   1     0     2     2  12.0       1.00       1.000     
  13     1   1     0     2     2  13.0       1.00       1.000     
  14     1   1     0     2     2  14.0       1.00       1.000     
  15     1   1     0     2     2  15.0       1.00       1.000     
  16     1   1     0     2     2  16.0       1.00       1.000     
  17     1   1     0     2     2  17.0       1.00       1.000     
  18     1   1     0     2     2  18.0       1.00       1.000     
  19     1   1     0     2     2  19.0       1.00       1.000     
  20     1   1     0     2     2  20.0       1.00       1.000     
  21     1   1     0     2     2  21.0       1.00       1.000     
  22     1   1     0     2     2  22.0       1.00       1.000     
  23     1   1     0     2     2  23.0       1.00       1.000     
  24     1   1     0     2     2  24.0       1.00       1.000     
  25     1   1     0     2     2  25.0       1.00       1.000     
  26     1   1     0     2     2  26.0       1.00       1.000     
  27     1   1     0     2     2  27.0       1.00       1.000     
  28     1   1     0     2     2  28.0       1.00       1.000     
  29     1   1     0     2     2  29.0       1.00       1.000     
  30     1   1     0     2     2  30.0       1.00       1.000     
  31     1   1     0     2     2  31.0       1.00       1.000     
  32     1   1     0     2     2  32.0       1.00       1.000     
  33     1   1     0     2     2  33.0       1.00       1.000     
  34     1   1     0     2     2  34.0       1.00       1.000     
  35     1   1     0     2     2  35.0       1.00       1.000     
  36     1   1     0     2     2  36.0       1.00       1.000     
  37     1   1     0     2     2  37.0       1.00       1.000     
  38     1   1     0     2     2  38.0       1.00       1.000     
  39     1   1     0     2     2  39.0       1.00       1.000     
  40     1   1     0     2     2  40.0       1.00       1.000     
  41     1   1     0     2     2  41.0       1.00       1.000     
  42     1   1     0     2     2  42.0       1.00       1.000     
  43     1   1     0     2     2  43.0       1.00       1.000     
  44     1   1     0     2     2  44.0       1.00       1.000     
  45     1   1     0     2     2  45.0       1.00       1.000     
  46     1   1     0     2     2  46.0       1.00       1.000     
  47     1   1     0     2     2  47.0       1.00       1.000     
  48     1   1     0     2     2  48.0       1.00       1.000     
  49     1   1     0     2     2  49.0       1.00       1.000     
  50     1   1     0     2     2  50.0       1.00       1.000     
  51     1   1     0     2     2  51.0       1.00       1.000     
  52     1   1     0     2     2  52.0       1.00       1.000     
  53     1   1     0     2     2  53.0       1.00       1.000     
  54     1   1     0     2     2  54.0       1.00       1.000     
  55     1   1     0     2     2  55.0       1.00       1.000     
  56     1   1     0     2     2  56.0       1.00       1.000     
  57     1   1     0     2     2  57.0       1.00       1.000     
  58     1   1     0     2     2  58.0       1.00       1.000     
  59     1   1     0     2     2  59.0       1.00       1.000     
  60     1   1     0     2     2  60.0       1.00       1.000     
  61     1   1     0     2     2  61.0       1.00       1.000     
  62     1   1     0     2     2  62.0       1.00       1.000     
  63     1   1     0     2     2  63.0       1.00       1.000     
  64     1   1     0     2     2  64.0       1.00       1.000     
  65     1   1     0     2     2  65.0       1.00       1.000     
  66     1   1     0     2     2  66.0       1.00       1.000     
  67     1   1     0     2     2  67.0       1.00       1.000     
  68     1   1     0     2     2  68.0       1.00       1.000     
  69     1   1     0     2     2  69.0       1.00       1.000     
  70     1   1     0     2     2  70.0       1.00       1.000     
  71     1   1     0     2     2  71.0       1.00       1.000     
  72     1   1     0     2     2  72.0       1.00       1.000     
  73     1   1     0     2     2  73.0       1.00       1.000     
  74     1   1     0     2     2  74.0       1.00       1.000     
  75     1   1     0     2     2  75.0       1.00       1.000     
  76     1   1     0     2     2  76.0       1.00       1.000     
  77     1   1     0     2     2  77.0       1.00       1.000     
  78     1   1     0     2     2  78.0       1.00       1.000     
  79     1   1     0     2     2  79.0       1.00       1.000     
  80     1   1     0     2     2  80.0       1.00       1.000     
  81     1   1     0     2     2  81.0       1.00       1.000     
  82     1   1     0     2     2  82.0       1.00       1.000     
  83     1   1     0     2     2  83.0       1.00       1.000     
  84     1   1     0     2     2  84.0       1.00       1.000     
  85     1   1     0     2     2  85.0       1.00       1.000     
  86     1   1     0     2     2  86.0       1.00       1.000     
  87     1   1     0     2     2  87.0       1.00       1.000     
  88     1   1     0     2     2  88.0       1.00       1.000     
  89     1   1     0     2     2  89.0       1.00       1.000     
  90     1   1     0     2     2  90.0       1.00       1.000     
  91     1   1     0     2     2  91.0       1.00       1.000     
  92     1   1     0     2     2  92.0       1.00       1.000     
  93     1   1     0     2     2  93.0       1.00       1.000     
  94     1   1     0     2     2  94.0       1.00       1.000     
  95     1   1     0     2     2  95.0       1.00       1.000     
  96     1   1     0     2     2  96.0       1.00       1.000     
